10022 10021
  -OEChem-12141513173D

 28 29  0     1  0  0  0  0  0999 V2000
   31.7104   18.2312   23.5628 C   0  0  0  0  0  0  0  0  0  0  0  0
   32.3515   17.1122   24.3585 C   0  0  0  0  0  0  0  0  0  0  0  0
   33.7540   18.9437   22.4962 C   0  0  0  0  0  0  0  0  0  0  0  0
   33.7218   17.7861   24.6307 C   0  0  1  0  0  0  0  0  0  0  0  0
   34.5188   17.8652   23.2994 C   0  0  1  0  0  0  0  0  0  0  0  0
   32.6765   19.4188   23.5034 C   0  0  2  0  0  0  0  0  0  0  0  0
   33.3627   19.2771   24.8923 C   0  0  0  0  0  0  0  0  0  0  0  0
   32.0272   20.7405   23.1695 C   0  0  0  0  0  0  0  0  0  0  0  0
   32.4322   19.4997   26.1006 C   0  0  0  0  0  0  0  0  0  0  0  0
   34.5819   20.1980   25.1056 C   0  0  0  0  0  0  0  0  0  0  0  0
   30.6077   18.1744   23.0411 O   0  0  0  0  0  0  0  0  0  0  0  0
   34.5537   16.6352   22.5994 O   0  0  0  0  0  0  0  0  0  0  0  0
   31.7913   16.9296   25.2779 H   0  0  0  0  0  0  0  0  0  0  0  0
   32.4232   16.1970   23.7682 H   0  0  0  0  0  0  0  0  0  0  0  0
   34.4270   19.7626   22.2195 H   0  0  0  0  0  0  0  0  0  0  0  0
   33.3172   18.5407   21.5748 H   0  0  0  0  0  0  0  0  0  0  0  0
   34.2769   17.2859   25.4285 H   0  0  0  0  0  0  0  0  0  0  0  0
   35.5547   18.1765   23.4700 H   0  0  0  0  0  0  0  0  0  0  0  0
   32.7727   21.5419   23.1440 H   0  0  0  0  0  0  0  0  0  0  0  0
   31.2711   20.9996   23.9176 H   0  0  0  0  0  0  0  0  0  0  0  0
   31.5393   20.6950   22.1905 H   0  0  0  0  0  0  0  0  0  0  0  0
   32.2363   20.5607   26.2072 H   0  0  0  0  0  0  0  0  0  0  0  0
   32.9156   19.1236   26.9951 H   0  0  0  0  0  0  0  0  0  0  0  0
   31.5015   18.9689   25.9348 H   0  0  0  0  0  0  0  0  0  0  0  0
   34.2346   21.2097   25.2794 H   0  0  0  0  0  0  0  0  0  0  0  0
   35.2058   20.1694   24.2201 H   0  0  0  0  0  0  0  0  0  0  0  0
   35.1433   19.8482   25.9639 H   0  0  0  0  0  0  0  0  0  0  0  0
   35.0058   16.8000   21.7543 H   0  0  0  0  0  0  0  0  0  0  0  0
  1  2  1  0  0  0  0
  1  6  1  0  0  0  0
  1 11  2  0  0  0  0
  2  4  1  0  0  0  0
  3  5  1  0  0  0  0
  3  6  1  0  0  0  0
  4  5  1  0  0  0  0
  4  7  1  6  0  0  0
  5 12  1  1  0  0  0
  6  7  1  0  0  0  0
  6  8  1  6  0  0  0
  7  9  1  0  0  0  0
  7 10  1  0  0  0  0
  2 13  1  0  0  0  0
  2 14  1  0  0  0  0
  3 15  1  0  0  0  0
  3 16  1  0  0  0  0
  4 17  1  0  0  0  0
  5 18  1  0  0  0  0
  8 19  1  0  0  0  0
  8 20  1  0  0  0  0
  8 21  1  0  0  0  0
  9 22  1  0  0  0  0
  9 23  1  0  0  0  0
  9 24  1  0  0  0  0
 10 25  1  0  0  0  0
 10 26  1  0  0  0  0
 10 27  1  0  0  0  0
 12 28  1  0  0  0  0
M  END
> <Chemgauss4>
-6.182500

$$$$
10022 10021
  -OEChem-12141513173D

 28 29  0     1  0  0  0  0  0999 V2000
   33.7680   18.3962   22.6110 C   0  0  0  0  0  0  0  0  0  0  0  0
   33.9657   17.2400   23.5730 C   0  0  0  0  0  0  0  0  0  0  0  0
   31.4104   18.6931   23.0937 C   0  0  0  0  0  0  0  0  0  0  0  0
   32.9620   17.6826   24.6674 C   0  0  2  0  0  0  0  0  0  0  0  0
   31.5435   17.4953   24.0634 C   0  0  1  0  0  0  0  0  0  0  0  0
   32.7840   19.3978   23.2275 C   0  0  1  0  0  0  0  0  0  0  0  0
   33.1407   19.2313   24.7292 C   0  0  0  0  0  0  0  0  0  0  0  0
   32.8483   20.7871   22.6398 C   0  0  0  0  0  0  0  0  0  0  0  0
   34.5563   19.7008   25.1152 C   0  0  0  0  0  0  0  0  0  0  0  0
   32.1742   19.9387   25.7047 C   0  0  0  0  0  0  0  0  0  0  0  0
   34.2984   18.4917   21.5151 O   0  0  0  0  0  0  0  0  0  0  0  0
   30.5358   17.5346   25.0596 O   0  0  0  0  0  0  0  0  0  0  0  0
   33.6958   16.2889   23.1085 H   0  0  0  0  0  0  0  0  0  0  0  0
   34.9953   17.2140   23.9358 H   0  0  0  0  0  0  0  0  0  0  0  0
   31.2463   18.3390   22.0689 H   0  0  0  0  0  0  0  0  0  0  0  0
   30.5755   19.3501   23.3596 H   0  0  0  0  0  0  0  0  0  0  0  0
   33.1044   17.1736   25.6241 H   0  0  0  0  0  0  0  0  0  0  0  0
   31.4390   16.5439   23.5310 H   0  0  0  0  0  0  0  0  0  0  0  0
   32.1215   21.4464   23.1256 H   0  0  0  0  0  0  0  0  0  0  0  0
   32.6269   20.7641   21.5679 H   0  0  0  0  0  0  0  0  0  0  0  0
   33.8457   21.2182   22.7748 H   0  0  0  0  0  0  0  0  0  0  0  0
   34.5796   20.7848   25.1311 H   0  0  0  0  0  0  0  0  0  0  0  0
   35.2659   19.3291   24.3845 H   0  0  0  0  0  0  0  0  0  0  0  0
   34.8039   19.3139   26.0975 H   0  0  0  0  0  0  0  0  0  0  0  0
   32.3689   21.0038   25.6822 H   0  0  0  0  0  0  0  0  0  0  0  0
   32.3383   19.5535   26.7035 H   0  0  0  0  0  0  0  0  0  0  0  0
   31.1553   19.7420   25.3947 H   0  0  0  0  0  0  0  0  0  0  0  0
   29.6804   17.4965   24.5999 H   0  0  0  0  0  0  0  0  0  0  0  0
  1  2  1  0  0  0  0
  1  6  1  0  0  0  0
  1 11  2  0  0  0  0
  2  4  1  0  0  0  0
  3  5  1  0  0  0  0
  3  6  1  0  0  0  0
  4  5  1  0  0  0  0
  4  7  1  1  0  0  0
  5 12  1  1  0  0  0
  6  7  1  0  0  0  0
  6  8  1  1  0  0  0
  7  9  1  0  0  0  0
  7 10  1  0  0  0  0
  2 13  1  0  0  0  0
  2 14  1  0  0  0  0
  3 15  1  0  0  0  0
  3 16  1  0  0  0  0
  4 17  1  0  0  0  0
  5 18  1  0  0  0  0
  8 19  1  0  0  0  0
  8 20  1  0  0  0  0
  8 21  1  0  0  0  0
  9 22  1  0  0  0  0
  9 23  1  0  0  0  0
  9 24  1  0  0  0  0
 10 25  1  0  0  0  0
 10 26  1  0  0  0  0
 10 27  1  0  0  0  0
 12 28  1  0  0  0  0
M  END
> <Chemgauss4>
-6.477912

$$$$
10022 10021
  -OEChem-12141513173D

 28 29  0     1  0  0  0  0  0999 V2000
   32.4066   17.3095   23.6375 C   0  0  0  0  0  0  0  0  0  0  0  0
   32.4198   16.8507   21.8135 C   0  0  0  0  0  0  0  0  0  0  0  0
   34.1165   17.5421   23.3329 C   0  0  0  0  0  0  0  0  0  0  0  0
   31.8053   15.9797   22.7111 C   0  0  1  0  0  0  0  0  0  0  0  0
   33.5977   15.7218   23.1642 C   0  0  1  0  0  0  0  0  0  0  0  0
   32.6065   18.6209   23.4167 C   0  0  1  0  0  0  0  0  0  0  0  0
   31.0298   17.6993   23.1080 C   0  0  0  0  0  0  0  0  0  0  0  0
   32.5769   19.5022   24.6496 C   0  0  0  0  0  0  0  0  0  0  0  0
   29.9405   17.5832   24.2541 C   0  0  0  0  0  0  0  0  0  0  0  0
   30.2565   18.5009   21.9969 C   0  0  0  0  0  0  0  0  0  0  0  0
   32.3511   16.7881   24.7685 O   0  0  0  0  0  0  0  0  0  0  0  0
   34.3680   15.0162   22.2108 O   0  0  0  0  0  0  0  0  0  0  0  0
   31.7320   17.2265   21.0677 H   0  0  0  0  0  0  0  0  0  0  0  0
   33.3711   16.7133   21.3011 H   0  0  0  0  0  0  0  0  0  0  0  0
   34.7079   17.6334   24.2588 H   0  0  0  0  0  0  0  0  0  0  0  0
   34.7305   17.8315   22.4687 H   0  0  0  0  0  0  0  0  0  0  0  0
   31.2316   15.1990   22.2122 H   0  0  0  0  0  0  0  0  0  0  0  0
   33.6898   15.2136   24.1356 H   0  0  0  0  0  0  0  0  0  0  0  0
   32.7477   20.5462   24.3754 H   0  0  0  0  0  0  0  0  0  0  0  0
   33.3538   19.1966   25.3546 H   0  0  0  0  0  0  0  0  0  0  0  0
   31.6069   19.4279   25.1473 H   0  0  0  0  0  0  0  0  0  0  0  0
   29.5565   18.5687   24.4192 H   0  0  0  0  0  0  0  0  0  0  0  0
   30.4395   17.1985   25.1195 H   0  0  0  0  0  0  0  0  0  0  0  0
   29.1845   16.9142   23.8979 H   0  0  0  0  0  0  0  0  0  0  0  0
   29.9156   19.4187   22.4387 H   0  0  0  0  0  0  0  0  0  0  0  0
   29.4322   17.8925   21.6741 H   0  0  0  0  0  0  0  0  0  0  0  0
   30.9448   18.6855   21.1934 H   0  0  0  0  0  0  0  0  0  0  0  0
   35.2946   15.0552   22.5047 H   0  0  0  0  0  0  0  0  0  0  0  0
  1  2  1  0  0  0  0
  1  6  1  0  0  0  0
  1 11  2  0  0  0  0
  2  4  1  0  0  0  0
  3  5  1  0  0  0  0
  3  6  1  0  0  0  0
  4  5  1  0  0  0  0
  4  7  1  6  0  0  0
  5 12  1  1  0  0  0
  6  7  1  0  0  0  0
  6  8  1  1  0  0  0
  7  9  1  0  0  0  0
  7 10  1  0  0  0  0
  2 13  1  0  0  0  0
  2 14  1  0  0  0  0
  3 15  1  0  0  0  0
  3 16  1  0  0  0  0
  4 17  1  0  0  0  0
  5 18  1  0  0  0  0
  8 19  1  0  0  0  0
  8 20  1  0  0  0  0
  8 21  1  0  0  0  0
  9 22  1  0  0  0  0
  9 23  1  0  0  0  0
  9 24  1  0  0  0  0
 10 25  1  0  0  0  0
 10 26  1  0  0  0  0
 10 27  1  0  0  0  0
 12 28  1  0  0  0  0
M  END
> <Chemgauss4>
-7.207875

$$$$
10022 10021
  -OEChem-12141513173D

 28 29  0     1  0  0  0  0  0999 V2000
   32.9926   19.3784   24.4525 C   0  0  0  0  0  0  0  0  0  0  0  0
   33.7973   19.7671   23.2265 C   0  0  0  0  0  0  0  0  0  0  0  0
   33.5360   17.0182   24.3422 C   0  0  0  0  0  0  0  0  0  0  0  0
   33.5846   18.4753   22.3978 C   0  0  1  0  0  0  0  0  0  0  0  0
   34.4009   17.3598   23.1059 C   0  0  2  0  0  0  0  0  0  0  0  0
   32.3493   18.0067   24.2150 C   0  0  2  0  0  0  0  0  0  0  0  0
   32.1000   18.0910   22.6850 C   0  0  0  0  0  0  0  0  0  0  0  0
   31.1678   17.7028   25.1045 C   0  0  0  0  0  0  0  0  0  0  0  0
   31.6379   16.7755   22.0299 C   0  0  0  0  0  0  0  0  0  0  0  0
   31.0769   19.1655   22.2555 C   0  0  0  0  0  0  0  0  0  0  0  0
   32.8974   20.0508   25.4674 O   0  0  0  0  0  0  0  0  0  0  0  0
   34.5728   16.2229   22.2768 O   0  0  0  0  0  0  0  0  0  0  0  0
   33.3656   20.6476   22.7462 H   0  0  0  0  0  0  0  0  0  0  0  0
   34.8453   19.9409   23.4812 H   0  0  0  0  0  0  0  0  0  0  0  0
   33.2108   15.9724   24.3432 H   0  0  0  0  0  0  0  0  0  0  0  0
   34.1010   17.1951   25.2652 H   0  0  0  0  0  0  0  0  0  0  0  0
   33.8238   18.5907   21.3375 H   0  0  0  0  0  0  0  0  0  0  0  0
   35.3986   17.6991   23.4047 H   0  0  0  0  0  0  0  0  0  0  0  0
   30.7603   16.7115   24.8807 H   0  0  0  0  0  0  0  0  0  0  0  0
   30.3730   18.4412   24.9570 H   0  0  0  0  0  0  0  0  0  0  0  0
   31.4625   17.7223   26.1587 H   0  0  0  0  0  0  0  0  0  0  0  0
   30.5996   16.5959   22.2861 H   0  0  0  0  0  0  0  0  0  0  0  0
   32.2524   15.9607   22.3961 H   0  0  0  0  0  0  0  0  0  0  0  0
   31.7413   16.8585   20.9536 H   0  0  0  0  0  0  0  0  0  0  0  0
   30.0793   18.8157   22.4914 H   0  0  0  0  0  0  0  0  0  0  0  0
   31.1680   19.3319   21.1892 H   0  0  0  0  0  0  0  0  0  0  0  0
   31.2839   20.0830   22.7924 H   0  0  0  0  0  0  0  0  0  0  0  0
   35.0145   15.5439   22.8141 H   0  0  0  0  0  0  0  0  0  0  0  0
  1  2  1  0  0  0  0
  1  6  1  0  0  0  0
  1 11  2  0  0  0  0
  2  4  1  0  0  0  0
  3  5  1  0  0  0  0
  3  6  1  0  0  0  0
  4  5  1  0  0  0  0
  4  7  1  6  0  0  0
  5 12  1  6  0  0  0
  6  7  1  0  0  0  0
  6  8  1  6  0  0  0
  7  9  1  0  0  0  0
  7 10  1  0  0  0  0
  2 13  1  0  0  0  0
  2 14  1  0  0  0  0
  3 15  1  0  0  0  0
  3 16  1  0  0  0  0
  4 17  1  0  0  0  0
  5 18  1  0  0  0  0
  8 19  1  0  0  0  0
  8 20  1  0  0  0  0
  8 21  1  0  0  0  0
  9 22  1  0  0  0  0
  9 23  1  0  0  0  0
  9 24  1  0  0  0  0
 10 25  1  0  0  0  0
 10 26  1  0  0  0  0
 10 27  1  0  0  0  0
 12 28  1  0  0  0  0
M  END
> <Chemgauss4>
-6.251606

$$$$
10022 10021
  -OEChem-12141513173D

 28 29  0     1  0  0  0  0  0999 V2000
   31.9144   17.6533   23.6405 C   0  0  0  0  0  0  0  0  0  0  0  0
   31.6324   18.9273   22.8702 C   0  0  0  0  0  0  0  0  0  0  0  0
   34.2653   17.5838   23.1012 C   0  0  0  0  0  0  0  0  0  0  0  0
   32.9836   19.6463   23.1222 C   0  0  2  0  0  0  0  0  0  0  0  0
   34.1007   18.9139   22.3286 C   0  0  2  0  0  0  0  0  0  0  0  0
   33.2950   17.7610   24.2963 C   0  0  1  0  0  0  0  0  0  0  0  0
   33.3320   19.2870   24.5954 C   0  0  0  0  0  0  0  0  0  0  0  0
   33.5189   16.8113   25.4484 C   0  0  0  0  0  0  0  0  0  0  0  0
   34.6998   19.8168   25.0740 C   0  0  0  0  0  0  0  0  0  0  0  0
   32.2931   19.7712   25.6259 C   0  0  0  0  0  0  0  0  0  0  0  0
   31.1613   16.6940   23.7034 O   0  0  0  0  0  0  0  0  0  0  0  0
   33.7581   18.6801   20.9752 O   0  0  0  0  0  0  0  0  0  0  0  0
   31.4374   18.7188   21.8167 H   0  0  0  0  0  0  0  0  0  0  0  0
   30.7904   19.4623   23.3149 H   0  0  0  0  0  0  0  0  0  0  0  0
   34.0148   16.7131   22.4835 H   0  0  0  0  0  0  0  0  0  0  0  0
   35.2995   17.4670   23.4434 H   0  0  0  0  0  0  0  0  0  0  0  0
   32.9320   20.7143   22.8950 H   0  0  0  0  0  0  0  0  0  0  0  0
   35.0369   19.4817   22.3381 H   0  0  0  0  0  0  0  0  0  0  0  0
   34.5216   16.9421   25.8679 H   0  0  0  0  0  0  0  0  0  0  0  0
   33.4186   15.7724   25.1180 H   0  0  0  0  0  0  0  0  0  0  0  0
   32.7884   16.9900   26.2441 H   0  0  0  0  0  0  0  0  0  0  0  0
   34.8533   19.5190   26.1045 H   0  0  0  0  0  0  0  0  0  0  0  0
   34.7066   20.8976   24.9976 H   0  0  0  0  0  0  0  0  0  0  0  0
   35.4796   19.3978   24.4490 H   0  0  0  0  0  0  0  0  0  0  0  0
   32.6151   19.4791   26.6189 H   0  0  0  0  0  0  0  0  0  0  0  0
   31.3338   19.3183   25.4025 H   0  0  0  0  0  0  0  0  0  0  0  0
   32.2124   20.8508   25.5683 H   0  0  0  0  0  0  0  0  0  0  0  0
   34.4792   18.1580   20.5839 H   0  0  0  0  0  0  0  0  0  0  0  0
  1  2  1  0  0  0  0
  1  6  1  0  0  0  0
  1 11  2  0  0  0  0
  2  4  1  0  0  0  0
  3  5  1  0  0  0  0
  3  6  1  0  0  0  0
  4  5  1  0  0  0  0
  4  7  1  1  0  0  0
  5 12  1  6  0  0  0
  6  7  1  0  0  0  0
  6  8  1  1  0  0  0
  7  9  1  0  0  0  0
  7 10  1  0  0  0  0
  2 13  1  0  0  0  0
  2 14  1  0  0  0  0
  3 15  1  0  0  0  0
  3 16  1  0  0  0  0
  4 17  1  0  0  0  0
  5 18  1  0  0  0  0
  8 19  1  0  0  0  0
  8 20  1  0  0  0  0
  8 21  1  0  0  0  0
  9 22  1  0  0  0  0
  9 23  1  0  0  0  0
  9 24  1  0  0  0  0
 10 25  1  0  0  0  0
 10 26  1  0  0  0  0
 10 27  1  0  0  0  0
 12 28  1  0  0  0  0
M  END
> <Chemgauss4>
-6.343815

$$$$
10022 10021
  -OEChem-12141513173D

 28 29  0     1  0  0  0  0  0999 V2000
   33.0071    7.8740   27.2837 C   0  0  0  0  0  0  0  0  0  0  0  0
   34.3784    7.8428   28.5738 C   0  0  0  0  0  0  0  0  0  0  0  0
   32.2394    6.7373   28.3783 C   0  0  0  0  0  0  0  0  0  0  0  0
   34.6954    7.6378   27.2334 C   0  0  1  0  0  0  0  0  0  0  0  0
   33.8395    6.0371   27.6485 C   0  0  2  0  0  0  0  0  0  0  0  0
   32.1359    8.5556   28.0524 C   0  0  1  0  0  0  0  0  0  0  0  0
   33.6366    9.2521   27.2407 C   0  0  0  0  0  0  0  0  0  0  0  0
   30.8354    8.9550   27.3834 C   0  0  0  0  0  0  0  0  0  0  0  0
   33.5351    9.8767   25.7862 C   0  0  0  0  0  0  0  0  0  0  0  0
   34.0658   10.4959   28.1048 C   0  0  0  0  0  0  0  0  0  0  0  0
   32.7347    7.4384   26.1470 O   0  0  0  0  0  0  0  0  0  0  0  0
   33.6469    5.1823   26.5362 O   0  0  0  0  0  0  0  0  0  0  0  0
   34.9040    8.7021   28.9699 H   0  0  0  0  0  0  0  0  0  0  0  0
   34.3408    7.1045   29.3768 H   0  0  0  0  0  0  0  0  0  0  0  0
   31.3880    6.2054   27.9249 H   0  0  0  0  0  0  0  0  0  0  0  0
   32.2574    6.5902   29.4673 H   0  0  0  0  0  0  0  0  0  0  0  0
   35.7554    7.6599   26.9832 H   0  0  0  0  0  0  0  0  0  0  0  0
   34.3648    5.4613   28.4247 H   0  0  0  0  0  0  0  0  0  0  0  0
   30.1989    9.5004   28.0844 H   0  0  0  0  0  0  0  0  0  0  0  0
   30.2959    8.0686   27.0413 H   0  0  0  0  0  0  0  0  0  0  0  0
   31.0326    9.5966   26.5212 H   0  0  0  0  0  0  0  0  0  0  0  0
   32.9383   10.7612   25.8693 H   0  0  0  0  0  0  0  0  0  0  0  0
   33.0729    9.1391   25.1634 H   0  0  0  0  0  0  0  0  0  0  0  0
   34.5345   10.0962   25.4724 H   0  0  0  0  0  0  0  0  0  0  0  0
   33.3322   11.2646   27.9500 H   0  0  0  0  0  0  0  0  0  0  0  0
   35.0357   10.8058   27.7639 H   0  0  0  0  0  0  0  0  0  0  0  0
   34.0932   10.1812   29.1312 H   0  0  0  0  0  0  0  0  0  0  0  0
   34.5272    4.8860   26.2483 H   0  0  0  0  0  0  0  0  0  0  0  0
  1  2  1  0  0  0  0
  1  6  1  0  0  0  0
  1 11  2  0  0  0  0
  2  4  1  0  0  0  0
  3  5  1  0  0  0  0
  3  6  1  0  0  0  0
  4  5  1  0  0  0  0
  4  7  1  6  0  0  0
  5 12  1  6  0  0  0
  6  7  1  0  0  0  0
  6  8  1  1  0  0  0
  7  9  1  0  0  0  0
  7 10  1  0  0  0  0
  2 13  1  0  0  0  0
  2 14  1  0  0  0  0
  3 15  1  0  0  0  0
  3 16  1  0  0  0  0
  4 17  1  0  0  0  0
  5 18  1  0  0  0  0
  8 19  1  0  0  0  0
  8 20  1  0  0  0  0
  8 21  1  0  0  0  0
  9 22  1  0  0  0  0
  9 23  1  0  0  0  0
  9 24  1  0  0  0  0
 10 25  1  0  0  0  0
 10 26  1  0  0  0  0
 10 27  1  0  0  0  0
 12 28  1  0  0  0  0
M  END
> <Chemgauss4>
-6.628640

$$$$
29920 29919
  -OEChem-12141513173D

 23 24  0     0  0  0  0  0  0999 V2000
   33.3559   12.8093   22.2367 C   0  0  0  0  0  0  0  0  0  0  0  0
   33.4638   14.0116   22.9266 C   0  0  0  0  0  0  0  0  0  0  0  0
   34.1630   18.2330   24.0237 C   0  0  0  0  0  0  0  0  0  0  0  0
   34.1497   17.0172   23.3492 C   0  0  0  0  0  0  0  0  0  0  0  0
   32.6100   12.7961   21.0690 C   0  0  0  0  0  0  0  0  0  0  0  0
   32.1090   15.0304   21.2581 C   0  0  0  0  0  0  0  0  0  0  0  0
   31.7929   18.1120   24.1814 C   0  0  0  0  0  0  0  0  0  0  0  0
   32.8314   15.1481   22.4347 C   0  0  0  0  0  0  0  0  0  0  0  0
   32.9663   18.7976   24.4511 C   0  0  0  0  0  0  0  0  0  0  0  0
   32.9233   16.4110   23.1289 C   0  0  0  0  0  0  0  0  0  0  0  0
   32.9476   20.0658   25.1585 C   0  0  0  0  0  0  0  0  0  0  0  0
   31.9817   13.8797   20.5602 N   0  0  0  0  0  0  0  0  0  0  0  0
   31.7404   16.9290   23.5290 N   0  0  0  0  0  0  0  0  0  0  0  0
   33.9415   20.7448   25.4422 O   0  0  0  0  0  0  0  0  0  0  0  0
   31.6873   20.4577   25.4955 O   0  0  0  0  0  0  0  0  0  0  0  0
   33.8399   11.9102   22.6005 H   0  0  0  0  0  0  0  0  0  0  0  0
   34.0417   14.0481   23.8467 H   0  0  0  0  0  0  0  0  0  0  0  0
   35.1096   18.7329   24.2103 H   0  0  0  0  0  0  0  0  0  0  0  0
   35.0792   16.5701   23.0116 H   0  0  0  0  0  0  0  0  0  0  0  0
   32.4956   11.8833   20.4938 H   0  0  0  0  0  0  0  0  0  0  0  0
   31.5906   15.8799   20.8228 H   0  0  0  0  0  0  0  0  0  0  0  0
   30.8277   18.5020   24.4904 H   0  0  0  0  0  0  0  0  0  0  0  0
   31.6638   21.3138   25.9738 H   0  0  0  0  0  0  0  0  0  0  0  0
  1  2  1  0  0  0  0
  1  5  2  0  0  0  0
  2  8  2  0  0  0  0
  3  4  2  0  0  0  0
  3  9  1  0  0  0  0
  4 10  1  0  0  0  0
  5 12  1  0  0  0  0
  6  8  1  0  0  0  0
  6 12  2  0  0  0  0
  7  9  2  0  0  0  0
  7 13  1  0  0  0  0
  8 10  1  0  0  0  0
  9 11  1  0  0  0  0
 10 13  2  0  0  0  0
 11 14  2  0  0  0  0
 11 15  1  0  0  0  0
  1 16  1  0  0  0  0
  2 17  1  0  0  0  0
  3 18  1  0  0  0  0
  4 19  1  0  0  0  0
  5 20  1  0  0  0  0
  6 21  1  0  0  0  0
  7 22  1  0  0  0  0
 15 23  1  0  0  0  0
M  END
> <Chemgauss4>
-9.134842

$$$$
29920 29919
  -OEChem-12141513173D

 23 24  0     0  0  0  0  0  0999 V2000
   31.5511   14.2546   20.0489 C   0  0  0  0  0  0  0  0  0  0  0  0
   31.6922   15.4187   20.7961 C   0  0  0  0  0  0  0  0  0  0  0  0
   33.6249   18.0506   24.1867 C   0  0  0  0  0  0  0  0  0  0  0  0
   33.5458   16.8901   23.4248 C   0  0  0  0  0  0  0  0  0  0  0  0
   31.8799   13.0521   20.6536 C   0  0  0  0  0  0  0  0  0  0  0  0
   32.4531   14.0944   22.6192 C   0  0  0  0  0  0  0  0  0  0  0  0
   31.2934   18.3723   23.8438 C   0  0  0  0  0  0  0  0  0  0  0  0
   32.1513   15.3458   22.1066 C   0  0  0  0  0  0  0  0  0  0  0  0
   32.4816   18.8115   24.4049 C   0  0  0  0  0  0  0  0  0  0  0  0
   32.3098   16.5367   22.9077 C   0  0  0  0  0  0  0  0  0  0  0  0
   32.5321   20.0280   25.1967 C   0  0  0  0  0  0  0  0  0  0  0  0
   32.3288   12.9417   21.9240 N   0  0  0  0  0  0  0  0  0  0  0  0
   31.1776   17.2505   23.0982 N   0  0  0  0  0  0  0  0  0  0  0  0
   33.5438   20.4939   25.7340 O   0  0  0  0  0  0  0  0  0  0  0  0
   31.3172   20.6355   25.2993 O   0  0  0  0  0  0  0  0  0  0  0  0
   31.1951   14.2865   19.0257 H   0  0  0  0  0  0  0  0  0  0  0  0
   31.4428   16.3756   20.3440 H   0  0  0  0  0  0  0  0  0  0  0  0
   34.5809   18.3541   24.6048 H   0  0  0  0  0  0  0  0  0  0  0  0
   34.4335   16.2910   23.2492 H   0  0  0  0  0  0  0  0  0  0  0  0
   31.7869   12.1157   20.1135 H   0  0  0  0  0  0  0  0  0  0  0  0
   32.8178   13.9697   23.6349 H   0  0  0  0  0  0  0  0  0  0  0  0
   30.3676   18.9235   23.9795 H   0  0  0  0  0  0  0  0  0  0  0  0
   31.3406   21.4587   25.8322 H   0  0  0  0  0  0  0  0  0  0  0  0
  1  2  1  0  0  0  0
  1  5  2  0  0  0  0
  2  8  2  0  0  0  0
  3  4  2  0  0  0  0
  3  9  1  0  0  0  0
  4 10  1  0  0  0  0
  5 12  1  0  0  0  0
  6  8  1  0  0  0  0
  6 12  2  0  0  0  0
  7  9  2  0  0  0  0
  7 13  1  0  0  0  0
  8 10  1  0  0  0  0
  9 11  1  0  0  0  0
 10 13  2  0  0  0  0
 11 14  2  0  0  0  0
 11 15  1  0  0  0  0
  1 16  1  0  0  0  0
  2 17  1  0  0  0  0
  3 18  1  0  0  0  0
  4 19  1  0  0  0  0
  5 20  1  0  0  0  0
  6 21  1  0  0  0  0
  7 22  1  0  0  0  0
 15 23  1  0  0  0  0
M  END
> <Chemgauss4>
-9.049803

$$$$
29920 29919
  -OEChem-12141513173D

 23 24  0     0  0  0  0  0  0999 V2000
   30.5801   16.4544   21.4485 C   0  0  0  0  0  0  0  0  0  0  0  0
   31.5511   17.2540   22.0411 C   0  0  0  0  0  0  0  0  0  0  0  0
   33.1446   20.2349   25.3178 C   0  0  0  0  0  0  0  0  0  0  0  0
   32.1347   19.4899   24.7191 C   0  0  0  0  0  0  0  0  0  0  0  0
   29.5857   15.9326   22.2602 C   0  0  0  0  0  0  0  0  0  0  0  0
   30.4633   16.9353   24.1320 C   0  0  0  0  0  0  0  0  0  0  0  0
   34.7175   18.6274   24.5443 C   0  0  0  0  0  0  0  0  0  0  0  0
   31.4988   17.5040   23.4079 C   0  0  0  0  0  0  0  0  0  0  0  0
   34.4634   19.8022   25.2333 C   0  0  0  0  0  0  0  0  0  0  0  0
   32.4931   18.3290   24.0529 C   0  0  0  0  0  0  0  0  0  0  0  0
   35.5401   20.5588   25.8476 C   0  0  0  0  0  0  0  0  0  0  0  0
   29.5020   16.1532   23.5914 N   0  0  0  0  0  0  0  0  0  0  0  0
   33.7630   17.8769   23.9497 N   0  0  0  0  0  0  0  0  0  0  0  0
   36.7379   20.2520   25.8239 O   0  0  0  0  0  0  0  0  0  0  0  0
   35.0964   21.6820   26.4775 O   0  0  0  0  0  0  0  0  0  0  0  0
   30.6001   16.2455   20.3851 H   0  0  0  0  0  0  0  0  0  0  0  0
   32.3435   17.6740   21.4265 H   0  0  0  0  0  0  0  0  0  0  0  0
   32.8943   21.1496   25.8484 H   0  0  0  0  0  0  0  0  0  0  0  0
   31.1028   19.8203   24.7810 H   0  0  0  0  0  0  0  0  0  0  0  0
   28.8050   15.3032   21.8464 H   0  0  0  0  0  0  0  0  0  0  0  0
   30.3671   17.0904   25.2028 H   0  0  0  0  0  0  0  0  0  0  0  0
   35.7268   18.2391   24.4438 H   0  0  0  0  0  0  0  0  0  0  0  0
   35.8166   22.2005   26.8958 H   0  0  0  0  0  0  0  0  0  0  0  0
  1  2  1  0  0  0  0
  1  5  2  0  0  0  0
  2  8  2  0  0  0  0
  3  4  2  0  0  0  0
  3  9  1  0  0  0  0
  4 10  1  0  0  0  0
  5 12  1  0  0  0  0
  6  8  1  0  0  0  0
  6 12  2  0  0  0  0
  7  9  2  0  0  0  0
  7 13  1  0  0  0  0
  8 10  1  0  0  0  0
  9 11  1  0  0  0  0
 10 13  2  0  0  0  0
 11 14  2  0  0  0  0
 11 15  1  0  0  0  0
  1 16  1  0  0  0  0
  2 17  1  0  0  0  0
  3 18  1  0  0  0  0
  4 19  1  0  0  0  0
  5 20  1  0  0  0  0
  6 21  1  0  0  0  0
  7 22  1  0  0  0  0
 15 23  1  0  0  0  0
M  END
> <Chemgauss4>
-9.658904

$$$$
29920 29919
  -OEChem-12141513173D

 23 24  0     0  0  0  0  0  0999 V2000
   33.1954   12.5113   21.7507 C   0  0  0  0  0  0  0  0  0  0  0  0
   33.1472   13.6545   22.5406 C   0  0  0  0  0  0  0  0  0  0  0  0
   31.8831   17.3829   24.5433 C   0  0  0  0  0  0  0  0  0  0  0  0
   31.8858   16.1939   23.8224 C   0  0  0  0  0  0  0  0  0  0  0  0
   32.9155   12.6437   20.4002 C   0  0  0  0  0  0  0  0  0  0  0  0
   32.5619   14.9049   20.6038 C   0  0  0  0  0  0  0  0  0  0  0  0
   33.5892   18.2001   23.1018 C   0  0  0  0  0  0  0  0  0  0  0  0
   32.8251   14.8782   21.9639 C   0  0  0  0  0  0  0  0  0  0  0  0
   32.7480   18.4101   24.1825 C   0  0  0  0  0  0  0  0  0  0  0  0
   32.7655   16.0831   22.7576 C   0  0  0  0  0  0  0  0  0  0  0  0
   32.7682   19.6637   24.9154 C   0  0  0  0  0  0  0  0  0  0  0  0
   32.5988   13.8152   19.8043 N   0  0  0  0  0  0  0  0  0  0  0  0
   33.6203   17.0590   22.3774 N   0  0  0  0  0  0  0  0  0  0  0  0
   33.5005   20.6289   24.6676 O   0  0  0  0  0  0  0  0  0  0  0  0
   31.8726   19.6836   25.9416 O   0  0  0  0  0  0  0  0  0  0  0  0
   33.4439   11.5465   22.1777 H   0  0  0  0  0  0  0  0  0  0  0  0
   33.3606   13.5771   23.6038 H   0  0  0  0  0  0  0  0  0  0  0  0
   31.2049   17.4990   25.3844 H   0  0  0  0  0  0  0  0  0  0  0  0
   31.2144   15.3870   24.0979 H   0  0  0  0  0  0  0  0  0  0  0  0
   32.9401   11.7822   19.7413 H   0  0  0  0  0  0  0  0  0  0  0  0
   32.3027   15.8281   20.0936 H   0  0  0  0  0  0  0  0  0  0  0  0
   34.2862   18.9649   22.7722 H   0  0  0  0  0  0  0  0  0  0  0  0
   31.8783   20.5268   26.4431 H   0  0  0  0  0  0  0  0  0  0  0  0
  1  2  1  0  0  0  0
  1  5  2  0  0  0  0
  2  8  2  0  0  0  0
  3  4  2  0  0  0  0
  3  9  1  0  0  0  0
  4 10  1  0  0  0  0
  5 12  1  0  0  0  0
  6  8  1  0  0  0  0
  6 12  2  0  0  0  0
  7  9  2  0  0  0  0
  7 13  1  0  0  0  0
  8 10  1  0  0  0  0
  9 11  1  0  0  0  0
 10 13  2  0  0  0  0
 11 14  2  0  0  0  0
 11 15  1  0  0  0  0
  1 16  1  0  0  0  0
  2 17  1  0  0  0  0
  3 18  1  0  0  0  0
  4 19  1  0  0  0  0
  5 20  1  0  0  0  0
  6 21  1  0  0  0  0
  7 22  1  0  0  0  0
 15 23  1  0  0  0  0
M  END
> <Chemgauss4>
-9.186851

$$$$
29920 29919
  -OEChem-12141513173D

 23 24  0     0  0  0  0  0  0999 V2000
   31.4126   14.9196   20.5350 C   0  0  0  0  0  0  0  0  0  0  0  0
   31.9502   15.8865   21.3775 C   0  0  0  0  0  0  0  0  0  0  0  0
   31.4472   19.3735   24.6513 C   0  0  0  0  0  0  0  0  0  0  0  0
   30.8696   18.4382   23.7998 C   0  0  0  0  0  0  0  0  0  0  0  0
   30.0891   14.5568   20.7255 C   0  0  0  0  0  0  0  0  0  0  0  0
   29.8465   16.0216   22.4788 C   0  0  0  0  0  0  0  0  0  0  0  0
   33.5384   18.2824   24.3466 C   0  0  0  0  0  0  0  0  0  0  0  0
   31.1588   16.4530   22.3705 C   0  0  0  0  0  0  0  0  0  0  0  0
   32.8065   19.3010   24.9350 C   0  0  0  0  0  0  0  0  0  0  0  0
   31.6883   17.4582   23.2619 C   0  0  0  0  0  0  0  0  0  0  0  0
   33.4387   20.2635   25.8199 C   0  0  0  0  0  0  0  0  0  0  0  0
   29.2893   15.0849   21.6790 N   0  0  0  0  0  0  0  0  0  0  0  0
   33.0125   17.3557   23.5143 N   0  0  0  0  0  0  0  0  0  0  0  0
   34.3638   21.0238   25.5108 O   0  0  0  0  0  0  0  0  0  0  0  0
   32.9010   20.2547   27.0714 O   0  0  0  0  0  0  0  0  0  0  0  0
   32.0101   14.4638   19.7538 H   0  0  0  0  0  0  0  0  0  0  0  0
   32.9872   16.1872   21.2501 H   0  0  0  0  0  0  0  0  0  0  0  0
   30.8303   20.1535   25.0894 H   0  0  0  0  0  0  0  0  0  0  0  0
   29.8093   18.4873   23.5738 H   0  0  0  0  0  0  0  0  0  0  0  0
   29.6228   13.8076   20.0944 H   0  0  0  0  0  0  0  0  0  0  0  0
   29.1773   16.4232   23.2345 H   0  0  0  0  0  0  0  0  0  0  0  0
   34.6034   18.1744   24.5295 H   0  0  0  0  0  0  0  0  0  0  0  0
   33.3213   20.9019   27.6771 H   0  0  0  0  0  0  0  0  0  0  0  0
  1  2  1  0  0  0  0
  1  5  2  0  0  0  0
  2  8  2  0  0  0  0
  3  4  2  0  0  0  0
  3  9  1  0  0  0  0
  4 10  1  0  0  0  0
  5 12  1  0  0  0  0
  6  8  1  0  0  0  0
  6 12  2  0  0  0  0
  7  9  2  0  0  0  0
  7 13  1  0  0  0  0
  8 10  1  0  0  0  0
  9 11  1  0  0  0  0
 10 13  2  0  0  0  0
 11 14  2  0  0  0  0
 11 15  1  0  0  0  0
  1 16  1  0  0  0  0
  2 17  1  0  0  0  0
  3 18  1  0  0  0  0
  4 19  1  0  0  0  0
  5 20  1  0  0  0  0
  6 21  1  0  0  0  0
  7 22  1  0  0  0  0
 15 23  1  0  0  0  0
M  END
> <Chemgauss4>
-8.525129

$$$$
29920 29919
  -OEChem-12141513173D

 23 24  0     0  0  0  0  0  0999 V2000
   30.5904   16.0808   21.5349 C   0  0  0  0  0  0  0  0  0  0  0  0
   31.5493   16.8211   22.2176 C   0  0  0  0  0  0  0  0  0  0  0  0
   32.8734   19.6376   25.8840 C   0  0  0  0  0  0  0  0  0  0  0  0
   31.8934   18.8867   25.2444 C   0  0  0  0  0  0  0  0  0  0  0  0
   29.2612   16.2684   21.8776 C   0  0  0  0  0  0  0  0  0  0  0  0
   29.8004   17.8285   23.4758 C   0  0  0  0  0  0  0  0  0  0  0  0
   34.1777   19.5307   23.8981 C   0  0  0  0  0  0  0  0  0  0  0  0
   31.1550   17.7138   23.2080 C   0  0  0  0  0  0  0  0  0  0  0  0
   34.0403   19.9700   25.2049 C   0  0  0  0  0  0  0  0  0  0  0  0
   32.1267   18.4959   23.9357 C   0  0  0  0  0  0  0  0  0  0  0  0
   35.0818   20.7536   25.8455 C   0  0  0  0  0  0  0  0  0  0  0  0
   28.8400   17.1263   22.8338 N   0  0  0  0  0  0  0  0  0  0  0  0
   33.2477   18.7996   23.2436 N   0  0  0  0  0  0  0  0  0  0  0  0
   36.2481   20.3853   26.0283 O   0  0  0  0  0  0  0  0  0  0  0  0
   34.6429   21.9803   26.2433 O   0  0  0  0  0  0  0  0  0  0  0  0
   30.8737   15.3789   20.7590 H   0  0  0  0  0  0  0  0  0  0  0  0
   32.5997   16.6908   21.9690 H   0  0  0  0  0  0  0  0  0  0  0  0
   32.7193   19.9579   26.9109 H   0  0  0  0  0  0  0  0  0  0  0  0
   30.9800   18.6224   25.7675 H   0  0  0  0  0  0  0  0  0  0  0  0
   28.4750   15.7153   21.3745 H   0  0  0  0  0  0  0  0  0  0  0  0
   29.4278   18.5062   24.2386 H   0  0  0  0  0  0  0  0  0  0  0  0
   35.0659   19.7590   23.3164 H   0  0  0  0  0  0  0  0  0  0  0  0
   35.3394   22.5178   26.6773 H   0  0  0  0  0  0  0  0  0  0  0  0
  1  2  1  0  0  0  0
  1  5  2  0  0  0  0
  2  8  2  0  0  0  0
  3  4  2  0  0  0  0
  3  9  1  0  0  0  0
  4 10  1  0  0  0  0
  5 12  1  0  0  0  0
  6  8  1  0  0  0  0
  6 12  2  0  0  0  0
  7  9  2  0  0  0  0
  7 13  1  0  0  0  0
  8 10  1  0  0  0  0
  9 11  1  0  0  0  0
 10 13  2  0  0  0  0
 11 14  2  0  0  0  0
 11 15  1  0  0  0  0
  1 16  1  0  0  0  0
  2 17  1  0  0  0  0
  3 18  1  0  0  0  0
  4 19  1  0  0  0  0
  5 20  1  0  0  0  0
  6 21  1  0  0  0  0
  7 22  1  0  0  0  0
 15 23  1  0  0  0  0
M  END
> <Chemgauss4>
-9.466630

$$$$
29920 29919
  -OEChem-12141513173D

 23 24  0     0  0  0  0  0  0999 V2000
   29.2499   14.9416   21.2767 C   0  0  0  0  0  0  0  0  0  0  0  0
   29.7321   15.9102   22.1502 C   0  0  0  0  0  0  0  0  0  0  0  0
   31.3385   19.2627   24.3228 C   0  0  0  0  0  0  0  0  0  0  0  0
   30.7607   18.3274   23.4715 C   0  0  0  0  0  0  0  0  0  0  0  0
   30.1185   14.4409   20.3204 C   0  0  0  0  0  0  0  0  0  0  0  0
   31.8375   15.7784   21.0518 C   0  0  0  0  0  0  0  0  0  0  0  0
   33.4295   18.1713   24.0178 C   0  0  0  0  0  0  0  0  0  0  0  0
   31.0494   16.3420   22.0424 C   0  0  0  0  0  0  0  0  0  0  0  0
   32.6979   19.1901   24.6063 C   0  0  0  0  0  0  0  0  0  0  0  0
   31.5791   17.3472   22.9336 C   0  0  0  0  0  0  0  0  0  0  0  0
   33.3304   20.1526   25.4909 C   0  0  0  0  0  0  0  0  0  0  0  0
   31.4045   14.8356   20.1851 N   0  0  0  0  0  0  0  0  0  0  0  0
   32.9033   17.2447   23.1857 N   0  0  0  0  0  0  0  0  0  0  0  0
   34.2554   20.9128   25.1815 O   0  0  0  0  0  0  0  0  0  0  0  0
   32.7929   20.1440   26.7425 O   0  0  0  0  0  0  0  0  0  0  0  0
   28.2269   14.5895   21.3414 H   0  0  0  0  0  0  0  0  0  0  0  0
   29.0700   16.3209   22.9085 H   0  0  0  0  0  0  0  0  0  0  0  0
   30.7218   20.0428   24.7609 H   0  0  0  0  0  0  0  0  0  0  0  0
   29.7003   18.3765   23.2457 H   0  0  0  0  0  0  0  0  0  0  0  0
   29.7912   13.6837   19.6157 H   0  0  0  0  0  0  0  0  0  0  0  0
   32.8738   16.0737   20.9141 H   0  0  0  0  0  0  0  0  0  0  0  0
   34.4946   18.0632   24.2004 H   0  0  0  0  0  0  0  0  0  0  0  0
   33.2134   20.7912   27.3481 H   0  0  0  0  0  0  0  0  0  0  0  0
  1  2  1  0  0  0  0
  1  5  2  0  0  0  0
  2  8  2  0  0  0  0
  3  4  2  0  0  0  0
  3  9  1  0  0  0  0
  4 10  1  0  0  0  0
  5 12  1  0  0  0  0
  6  8  1  0  0  0  0
  6 12  2  0  0  0  0
  7  9  2  0  0  0  0
  7 13  1  0  0  0  0
  8 10  1  0  0  0  0
  9 11  1  0  0  0  0
 10 13  2  0  0  0  0
 11 14  2  0  0  0  0
 11 15  1  0  0  0  0
  1 16  1  0  0  0  0
  2 17  1  0  0  0  0
  3 18  1  0  0  0  0
  4 19  1  0  0  0  0
  5 20  1  0  0  0  0
  6 21  1  0  0  0  0
  7 22  1  0  0  0  0
 15 23  1  0  0  0  0
M  END
> <Chemgauss4>
-8.496784

$$$$
29920 29919
  -OEChem-12141513173D

 23 24  0     0  0  0  0  0  0999 V2000
   28.7353   17.4905   22.8407 C   0  0  0  0  0  0  0  0  0  0  0  0
   29.7462   18.2179   23.4592 C   0  0  0  0  0  0  0  0  0  0  0  0
   32.9626   19.9479   25.7406 C   0  0  0  0  0  0  0  0  0  0  0  0
   31.8830   19.2723   25.1823 C   0  0  0  0  0  0  0  0  0  0  0  0
   29.0774   16.2947   22.2299 C   0  0  0  0  0  0  0  0  0  0  0  0
   31.2883   16.5272   22.8105 C   0  0  0  0  0  0  0  0  0  0  0  0
   34.3633   18.9698   24.0859 C   0  0  0  0  0  0  0  0  0  0  0  0
   31.0497   17.7340   23.4483 C   0  0  0  0  0  0  0  0  0  0  0  0
   34.2297   19.7991   25.1877 C   0  0  0  0  0  0  0  0  0  0  0  0
   32.1216   18.4666   24.0805 C   0  0  0  0  0  0  0  0  0  0  0  0
   35.3767   20.4920   25.7478 C   0  0  0  0  0  0  0  0  0  0  0  0
   30.3322   15.7926   22.1989 N   0  0  0  0  0  0  0  0  0  0  0  0
   33.3382   18.2973   23.5160 N   0  0  0  0  0  0  0  0  0  0  0  0
   36.3911   19.9505   26.2027 O   0  0  0  0  0  0  0  0  0  0  0  0
   35.2307   21.8461   25.7265 O   0  0  0  0  0  0  0  0  0  0  0  0
   27.7119   17.8475   22.8361 H   0  0  0  0  0  0  0  0  0  0  0  0
   29.5044   19.1605   23.9438 H   0  0  0  0  0  0  0  0  0  0  0  0
   32.8067   20.5863   26.6060 H   0  0  0  0  0  0  0  0  0  0  0  0
   30.8909   19.3823   25.6082 H   0  0  0  0  0  0  0  0  0  0  0  0
   28.3254   15.6900   21.7340 H   0  0  0  0  0  0  0  0  0  0  0  0
   32.2842   16.0961   22.7650 H   0  0  0  0  0  0  0  0  0  0  0  0
   35.3271   18.8144   23.6102 H   0  0  0  0  0  0  0  0  0  0  0  0
   36.0007   22.3237   26.1026 H   0  0  0  0  0  0  0  0  0  0  0  0
  1  2  1  0  0  0  0
  1  5  2  0  0  0  0
  2  8  2  0  0  0  0
  3  4  2  0  0  0  0
  3  9  1  0  0  0  0
  4 10  1  0  0  0  0
  5 12  1  0  0  0  0
  6  8  1  0  0  0  0
  6 12  2  0  0  0  0
  7  9  2  0  0  0  0
  7 13  1  0  0  0  0
  8 10  1  0  0  0  0
  9 11  1  0  0  0  0
 10 13  2  0  0  0  0
 11 14  2  0  0  0  0
 11 15  1  0  0  0  0
  1 16  1  0  0  0  0
  2 17  1  0  0  0  0
  3 18  1  0  0  0  0
  4 19  1  0  0  0  0
  5 20  1  0  0  0  0
  6 21  1  0  0  0  0
  7 22  1  0  0  0  0
 15 23  1  0  0  0  0
M  END
> <Chemgauss4>
-9.258400

$$$$
29946 29945
  -OEChem-12141513173D

 21 22  0     0  0  0  0  0  0999 V2000
   34.2880   19.5325   24.6793 C   0  0  0  0  0  0  0  0  0  0  0  0
   27.8566   16.8404   22.5996 C   0  0  0  0  0  0  0  0  0  0  0  0
   29.1904   17.1338   22.3390 C   0  0  0  0  0  0  0  0  0  0  0  0
   32.1812   18.4489   24.0440 C   0  0  0  0  0  0  0  0  0  0  0  0
   27.4530   16.7777   23.9237 C   0  0  0  0  0  0  0  0  0  0  0  0
   34.0857   18.1892   22.6430 C   0  0  0  0  0  0  0  0  0  0  0  0
   29.5652   17.2670   24.6838 C   0  0  0  0  0  0  0  0  0  0  0  0
   32.1167   17.1705   22.0395 C   0  0  0  0  0  0  0  0  0  0  0  0
   33.5202   18.7244   23.7892 C   0  0  0  0  0  0  0  0  0  0  0  0
   30.0676   17.3526   23.3954 C   0  0  0  0  0  0  0  0  0  0  0  0
   31.4590   17.6579   23.1573 C   0  0  0  0  0  0  0  0  0  0  0  0
   34.9129   20.1899   25.4032 N   0  0  0  0  0  0  0  0  0  0  0  0
   28.2760   16.9842   24.9761 N   0  0  0  0  0  0  0  0  0  0  0  0
   33.4160   17.4166   21.7585 N   0  0  0  0  0  0  0  0  0  0  0  0
   27.1542   16.6660   21.7926 H   0  0  0  0  0  0  0  0  0  0  0  0
   29.5329   17.1868   21.3084 H   0  0  0  0  0  0  0  0  0  0  0  0
   31.7013   18.8490   24.9353 H   0  0  0  0  0  0  0  0  0  0  0  0
   26.4230   16.5526   24.1798 H   0  0  0  0  0  0  0  0  0  0  0  0
   35.1262   18.3670   22.3868 H   0  0  0  0  0  0  0  0  0  0  0  0
   30.1987   17.4252   25.5520 H   0  0  0  0  0  0  0  0  0  0  0  0
   31.6094   16.5462   21.3096 H   0  0  0  0  0  0  0  0  0  0  0  0
  1  9  1  0  0  0  0
  1 12  3  0  0  0  0
  2  3  1  0  0  0  0
  2  5  2  0  0  0  0
  3 10  2  0  0  0  0
  4  9  2  0  0  0  0
  4 11  1  0  0  0  0
  5 13  1  0  0  0  0
  6  9  1  0  0  0  0
  6 14  2  0  0  0  0
  7 10  1  0  0  0  0
  7 13  2  0  0  0  0
  8 11  2  0  0  0  0
  8 14  1  0  0  0  0
 10 11  1  0  0  0  0
  2 15  1  0  0  0  0
  3 16  1  0  0  0  0
  4 17  1  0  0  0  0
  5 18  1  0  0  0  0
  6 19  1  0  0  0  0
  7 20  1  0  0  0  0
  8 21  1  0  0  0  0
M  END
> <Chemgauss4>
-10.010943

$$$$
29946 29945
  -OEChem-12141513173D

 21 22  0     0  0  0  0  0  0999 V2000
   29.0002   17.5882   23.7205 C   0  0  0  0  0  0  0  0  0  0  0  0
   34.3933   20.8065   25.7171 C   0  0  0  0  0  0  0  0  0  0  0  0
   33.3965   20.1179   25.0349 C   0  0  0  0  0  0  0  0  0  0  0  0
   31.3359   18.2453   24.0799 C   0  0  0  0  0  0  0  0  0  0  0  0
   35.6565   20.2391   25.7657 C   0  0  0  0  0  0  0  0  0  0  0  0
   30.8153   16.7363   22.3166 C   0  0  0  0  0  0  0  0  0  0  0  0
   34.9838   18.4183   24.5366 C   0  0  0  0  0  0  0  0  0  0  0  0
   33.0060   17.3457   22.6453 C   0  0  0  0  0  0  0  0  0  0  0  0
   30.3818   17.5226   23.3719 C   0  0  0  0  0  0  0  0  0  0  0  0
   33.6891   18.9003   24.4306 C   0  0  0  0  0  0  0  0  0  0  0  0
   32.6752   18.1606   23.7160 C   0  0  0  0  0  0  0  0  0  0  0  0
   27.8761   17.6414   24.0040 N   0  0  0  0  0  0  0  0  0  0  0  0
   35.9785   19.0586   25.1909 N   0  0  0  0  0  0  0  0  0  0  0  0
   32.1074   16.6289   21.9337 N   0  0  0  0  0  0  0  0  0  0  0  0
   34.1891   21.7571   26.1961 H   0  0  0  0  0  0  0  0  0  0  0  0
   32.3961   20.5406   24.9838 H   0  0  0  0  0  0  0  0  0  0  0  0
   31.0348   18.8764   24.9141 H   0  0  0  0  0  0  0  0  0  0  0  0
   36.4687   20.7367   26.2852 H   0  0  0  0  0  0  0  0  0  0  0  0
   30.1207   16.1476   21.7241 H   0  0  0  0  0  0  0  0  0  0  0  0
   35.2761   17.4728   24.0886 H   0  0  0  0  0  0  0  0  0  0  0  0
   34.0337   17.2375   22.3107 H   0  0  0  0  0  0  0  0  0  0  0  0
  1  9  1  0  0  0  0
  1 12  3  0  0  0  0
  2  3  1  0  0  0  0
  2  5  2  0  0  0  0
  3 10  2  0  0  0  0
  4  9  2  0  0  0  0
  4 11  1  0  0  0  0
  5 13  1  0  0  0  0
  6  9  1  0  0  0  0
  6 14  2  0  0  0  0
  7 10  1  0  0  0  0
  7 13  2  0  0  0  0
  8 11  2  0  0  0  0
  8 14  1  0  0  0  0
 10 11  1  0  0  0  0
  2 15  1  0  0  0  0
  3 16  1  0  0  0  0
  4 17  1  0  0  0  0
  5 18  1  0  0  0  0
  6 19  1  0  0  0  0
  7 20  1  0  0  0  0
  8 21  1  0  0  0  0
M  END
> <Chemgauss4>
-8.588902

$$$$
29946 29945
  -OEChem-12141513173D

 21 22  0     0  0  0  0  0  0999 V2000
   33.5947   19.9452   24.9493 C   0  0  0  0  0  0  0  0  0  0  0  0
   27.5887   17.4064   23.9889 C   0  0  0  0  0  0  0  0  0  0  0  0
   28.8827   17.9071   23.8996 C   0  0  0  0  0  0  0  0  0  0  0  0
   31.7459   18.5369   24.1652 C   0  0  0  0  0  0  0  0  0  0  0  0
   27.3595   16.1171   23.5361 C   0  0  0  0  0  0  0  0  0  0  0  0
   33.8166   18.4868   22.9960 C   0  0  0  0  0  0  0  0  0  0  0  0
   29.5616   15.8380   22.9430 C   0  0  0  0  0  0  0  0  0  0  0  0
   32.0908   17.1642   22.2538 C   0  0  0  0  0  0  0  0  0  0  0  0
   33.0541   18.9908   24.0374 C   0  0  0  0  0  0  0  0  0  0  0  0
   29.8938   17.1144   23.3678 C   0  0  0  0  0  0  0  0  0  0  0  0
   31.2475   17.6062   23.2604 C   0  0  0  0  0  0  0  0  0  0  0  0
   34.0347   20.7217   25.6911 N   0  0  0  0  0  0  0  0  0  0  0  0
   28.3160   15.3172   23.0137 N   0  0  0  0  0  0  0  0  0  0  0  0
   33.3671   17.5820   22.0978 N   0  0  0  0  0  0  0  0  0  0  0  0
   26.7842   18.0056   24.3997 H   0  0  0  0  0  0  0  0  0  0  0  0
   29.0886   18.9169   24.2460 H   0  0  0  0  0  0  0  0  0  0  0  0
   31.1157   18.9072   24.9717 H   0  0  0  0  0  0  0  0  0  0  0  0
   26.3676   15.6802   23.5844 H   0  0  0  0  0  0  0  0  0  0  0  0
   34.8450   18.8008   22.8414 H   0  0  0  0  0  0  0  0  0  0  0  0
   30.3046   15.1701   22.5167 H   0  0  0  0  0  0  0  0  0  0  0  0
   31.7625   16.4372   21.5166 H   0  0  0  0  0  0  0  0  0  0  0  0
  1  9  1  0  0  0  0
  1 12  3  0  0  0  0
  2  3  1  0  0  0  0
  2  5  2  0  0  0  0
  3 10  2  0  0  0  0
  4  9  2  0  0  0  0
  4 11  1  0  0  0  0
  5 13  1  0  0  0  0
  6  9  1  0  0  0  0
  6 14  2  0  0  0  0
  7 10  1  0  0  0  0
  7 13  2  0  0  0  0
  8 11  2  0  0  0  0
  8 14  1  0  0  0  0
 10 11  1  0  0  0  0
  2 15  1  0  0  0  0
  3 16  1  0  0  0  0
  4 17  1  0  0  0  0
  5 18  1  0  0  0  0
  6 19  1  0  0  0  0
  7 20  1  0  0  0  0
  8 21  1  0  0  0  0
M  END
> <Chemgauss4>
-8.915169

$$$$
29946 29945
  -OEChem-12141513173D

 21 22  0     0  0  0  0  0  0999 V2000
   33.5001    9.2293   22.8100 C   0  0  0  0  0  0  0  0  0  0  0  0
   31.2434   16.0502   21.6653 C   0  0  0  0  0  0  0  0  0  0  0  0
   31.6499   14.8103   21.1847 C   0  0  0  0  0  0  0  0  0  0  0  0
   32.9326   11.5833   22.4187 C   0  0  0  0  0  0  0  0  0  0  0  0
   31.5720   16.3792   22.9705 C   0  0  0  0  0  0  0  0  0  0  0  0
   33.6207   10.2371   20.5826 C   0  0  0  0  0  0  0  0  0  0  0  0
   32.6411   14.3727   23.3019 C   0  0  0  0  0  0  0  0  0  0  0  0
   33.0913   12.4408   20.2060 C   0  0  0  0  0  0  0  0  0  0  0  0
   33.3516   10.3479   21.9373 C   0  0  0  0  0  0  0  0  0  0  0  0
   32.3625   13.9497   22.0123 C   0  0  0  0  0  0  0  0  0  0  0  0
   32.7974   12.6549   21.5430 C   0  0  0  0  0  0  0  0  0  0  0  0
   33.6210    8.3193   23.5199 N   0  0  0  0  0  0  0  0  0  0  0  0
   32.2629   15.5695   23.8041 N   0  0  0  0  0  0  0  0  0  0  0  0
   33.5009   11.2553   19.7014 N   0  0  0  0  0  0  0  0  0  0  0  0
   30.6869   16.7377   21.0389 H   0  0  0  0  0  0  0  0  0  0  0  0
   31.4029   14.5271   20.1645 H   0  0  0  0  0  0  0  0  0  0  0  0
   32.7091   11.7100   23.4764 H   0  0  0  0  0  0  0  0  0  0  0  0
   31.2784   17.3346   23.3926 H   0  0  0  0  0  0  0  0  0  0  0  0
   33.9517    9.3000   20.1440 H   0  0  0  0  0  0  0  0  0  0  0  0
   33.1921   13.7469   23.9983 H   0  0  0  0  0  0  0  0  0  0  0  0
   33.0046   13.2362   19.4714 H   0  0  0  0  0  0  0  0  0  0  0  0
  1  9  1  0  0  0  0
  1 12  3  0  0  0  0
  2  3  1  0  0  0  0
  2  5  2  0  0  0  0
  3 10  2  0  0  0  0
  4  9  2  0  0  0  0
  4 11  1  0  0  0  0
  5 13  1  0  0  0  0
  6  9  1  0  0  0  0
  6 14  2  0  0  0  0
  7 10  1  0  0  0  0
  7 13  2  0  0  0  0
  8 11  2  0  0  0  0
  8 14  1  0  0  0  0
 10 11  1  0  0  0  0
  2 15  1  0  0  0  0
  3 16  1  0  0  0  0
  4 17  1  0  0  0  0
  5 18  1  0  0  0  0
  6 19  1  0  0  0  0
  7 20  1  0  0  0  0
  8 21  1  0  0  0  0
M  END
> <Chemgauss4>
-8.538752

$$$$
